 &MNC_01
 mnc_use_outdir	=	.FALSE.,
 mnc_outdir_str	=	'mnc_',
 mnc_outdir_date	=	.FALSE.,
 mnc_outdir_num =   .TRUE.,
 pickup_write_mnc =	.FALSE.,
 pickup_read_mnc	=	.FALSE.,
 mnc_use_indir	=	.FALSE., 
 mnc_indir_str	=	'',
 snapshot_mnc	=	.TRUE.,
 monitor_mnc	=	.TRUE.,
 timeave_mnc	=	.TRUE.,
 autodiff_mnc	=	.TRUE.,
 mnc_max_fsize	=	2.1e+09,
 mnc_filefreq	=	-1,
 readgrid_mnc	=	.FALSE.,
 mnc_echo_gvtypes =	.FALSE.,
&
